135
Lattice="27.155 0.0 0.0 0.0 5.431 0.0 0.0 0.0 32.586" Properties=species:S:1:pos:R:3 pbc="T T F"
Si      27.15500000       5.43100000       5.43098589 
Si      27.15500000       2.71550000       8.14649050 
Si       1.35774992       1.35775000       6.78873818 
Si       2.71549986       0.00000001       8.14649048 
Si       1.35774991       4.07325005       9.50424283 
Si       4.07324973       1.35775011       9.50424273 
Si       4.07324980       4.07324997       6.78873822 
Si       2.71549987       2.71550000       5.43098592 
Si       5.43099977       0.00000003       5.43098605 
Si       5.43099978       2.71550005       8.14649052 
Si       6.78874973       1.35774995       6.78873836 
Si       8.14649979       0.00000003       8.14649058 
Si       6.78874964       4.07325014       9.50424271 
Si       9.50424972       1.35775012       9.50424269 
Si       9.50424975       4.07324999       6.78873840 
Si       8.14649972       2.71550003       5.43098622 
Si      10.86199983       0.00000002       5.43098635 
Si      10.86199983       2.71550002       8.14649052 
Si      12.21974992       1.35775001       6.78873844 
Si      13.57750000       5.43100000       8.14649050 
Si      12.21974990       4.07325006       9.50424259 
Si      14.93525010       1.35774994       9.50424259 
Si      14.93525008       4.07324999       6.78873844 
Si      13.57750000       2.71550000       5.43098637 
Si      16.29300017       5.43099998       5.43098635 
Si      16.29300017       2.71549998       8.14649052 
Si      17.65075025       1.35775001       6.78873840 
Si      19.00850021       5.43099997       8.14649058 
Si      17.65075028       4.07324988       9.50424269 
Si      20.36625036       1.35774986       9.50424271 
Si      20.36625027       4.07325005       6.78873836 
Si      19.00850028       2.71549997       5.43098622 
Si      21.72400023       5.43099997       5.43098605 
Si      21.72400022       2.71549995       8.14649052 
Si      23.08175020       1.35775003       6.78873822 
Si      24.43950014       5.43099999       8.14649048 
Si      23.08175027       4.07324989       9.50424273 
Si      25.79725009       1.35774995       9.50424283 
Si      25.79725008       4.07325000       6.78873818 
Si      24.43950013       2.71550000       5.43098592 
Si      27.15500000       5.43100000      10.86199519 
Si      27.15500000       2.71550000      13.57749989 
Si       1.35774985       1.35775007      12.21974748 
Si       2.71549970       0.00000001      13.57749972 
Si       1.35774986       4.07325008      14.93525215 
Si       4.07324961       1.35775012      14.93525187 
Si       4.07324959       4.07325012      12.21974729 
Si       2.71549977       2.71550000      10.86199510 
Si       5.43099954       0.00000001      10.86199494 
Si       5.43099945       2.71550004      13.57749944 
Si       6.78874940       1.35775014      12.21974705 
Si       8.14649940       0.00000003      13.57749910 
Si       6.78874945       4.07325011      14.93525148 
Si       9.50424950       1.35775009      14.93525106 
Si       9.50424956       4.07325011      12.21974688 
Si       8.14649955       2.71550003      10.86199484 
Si      10.86199976       0.00000001      10.86199471 
Si      10.86199962       2.71549999      13.57749885 
Si      12.21974983       1.35775007      12.21974672 
Si      13.57750000       5.43100000      13.57749867 
Si      12.21974979       4.07325007      14.93525072 
Si      14.93525021       1.35774993      14.93525072 
Si      14.93525017       4.07324993      12.21974672 
Si      13.57750000       2.71550000      10.86199463 
Si      16.29300024       5.43099999      10.86199471 
Si      16.29300038       2.71550001      13.57749885 
Si      17.65075044       1.35774989      12.21974688 
Si      19.00850060       5.43099997      13.57749910 
Si      17.65075050       4.07324991      14.93525106 
Si      20.36625055       1.35774989      14.93525148 
Si      20.36625060       4.07324986      12.21974705 
Si      19.00850045       2.71549997      10.86199484 
Si      21.72400046       5.43099999      10.86199494 
Si      21.72400055       2.71549996      13.57749944 
Si      23.08175041       1.35774988      12.21974729 
Si      24.43950030       5.43099999      13.57749972 
Si      23.08175039       4.07324988      14.93525187 
Si      25.79725014       1.35774992      14.93525215 
Si      25.79725015       4.07324993      12.21974748 
Si      24.43950023       2.71550000      10.86199510 
Si      27.15500000       5.43100000      16.29300456 
Si      27.15500000       2.71550000      19.00850907 
Si       1.35774995       1.35775008      17.65075674 
Si       2.71550003       0.00000011      19.00850890 
Si       1.35775010       4.07325005      20.36626113 
Si       4.07325012       1.35775028      20.36626088 
Si       4.07324984       4.07325015      17.65075645 
Si       2.71549981       2.71550003      16.29300436 
Si       5.43099962       0.00000005      16.29300396 
Si       5.43100001       2.71550007      19.00850837 
Si       6.78874976       1.35775012      17.65075591 
Si       8.14650004       0.00000002      19.00850768 
Si       6.78875037       4.07325005      20.36626019 
Si       9.50425036       1.35775005      20.36625948 
Si       9.50424979       4.07325008      17.65075522 
Si       8.14649955       2.71550001      16.29300341 
Si      10.86199970       0.00000000      16.29300289 
Si      10.86200005       2.71550003      19.00850703 
Si      12.21974993       1.35775004      17.65075474 
Si      13.57750000       5.43100000      19.00850676 
Si      12.21975015       4.07325003      20.36625910 
Si      14.93524985       1.35774997      20.36625910 
Si      14.93525007       4.07324996      17.65075474 
Si      13.57750000       2.71550000      16.29300262 
Si      16.29300030       5.43100000      16.29300289 
Si      16.29299995       2.71549997      19.00850703 
Si      17.65075021       1.35774992      17.65075522 
Si      19.00849996       5.43099998      19.00850768 
Si      17.65074964       4.07324995      20.36625948 
Si      20.36624963       1.35774995      20.36626019 
Si      20.36625025       4.07324988      17.65075591 
Si      19.00850045       2.71549999      16.29300341 
Si      21.72400038       5.43099995      16.29300396 
Si      21.72399999       2.71549993      19.00850837 
Si      23.08175016       1.35774985      17.65075645 
Si      24.43949997       5.43099989      19.00850890 
Si      23.08174988       4.07324972      20.36626088 
Si      25.79724990       1.35774995      20.36626113 
Si      25.79725005       4.07324992      17.65075674 
Si      24.43950019       2.71549997      16.29300436 
Si       9.50425055       4.07325009      23.08176392 
Si       8.14650056       2.71549990      21.72401200 
Si      10.86200041       5.43100000      21.72401155 
Si      10.86200043       2.71549999      24.43951615 
Si      12.21975026       1.35775001      23.08176378 
Si      13.57750000       5.43100000      24.43951616 
Si      12.21975023       4.07324998      25.79726853 
Si      14.93524977       1.35775002      25.79726853 
Si      14.93524974       4.07324999      23.08176378 
Si      13.57750000       2.71550000      21.72401138 
Si      16.29299959       0.00000000      21.72401155 
Si      16.29299957       2.71550001      24.43951615 
Si      17.65074945       1.35774991      23.08176392 
Si      19.00849944       2.71550010      21.72401200 
Si      13.57750000       2.71550000      27.15502094 
